<routes>
        <vType id="typeWE" accel="0.8" decel="4.5" sigma="0.5" length="5" minGap="2.5" maxSpeed="16.67" guiShape="passenger"/>
        <vType id="typeNS" accel="0.8" decel="4.5" sigma="0.5" length="5" minGap="2.5" maxSpeed="16.67" guiShape="passenger"/>

        <route id="right" edges="51o 1i 2o 52i" />
        <route id="up" edges="53o 3i 4o 54i" />
        <route id="left" edges="52o 2i 1o 51i" />
        <route id="down" edges="54o 4i 3o 53i" />
    <vehicle id="left_0" type="typeWE" route="left" depart="0" color="0,1,1"/>
    <vehicle id="down_1" type="typeNS" route="down" depart="3" color="0,1,1"/>
    <vehicle id="left_2" type="typeWE" route="left" depart="8" color="0,1,1"/>
    <vehicle id="down_3" type="typeNS" route="down" depart="8" color="0,1,1"/>
    <vehicle id="up_4" type="typeNS" route="up" depart="12" color="0,1,1"/>
    <vehicle id="down_5" type="typeNS" route="down" depart="13" color="0,1,1"/>
    <vehicle id="right_6" type="typeWE" route="right" depart="15" color="0,1,1"/>
    <vehicle id="up_7" type="typeNS" route="up" depart="16" color="0,1,1"/>
    <vehicle id="left_8" type="typeWE" route="left" depart="24" color="0,1,1"/>
    <vehicle id="right_9" type="typeWE" route="right" depart="29" color="0,1,1"/>
    <vehicle id="up_10" type="typeNS" route="up" depart="30" color="0,1,1"/>
    <vehicle id="up_11" type="typeNS" route="up" depart="35" color="0,1,1"/>
    <vehicle id="up_12" type="typeNS" route="up" depart="37" color="0,1,1"/>
    <vehicle id="right_13" type="typeWE" route="right" depart="41" color="0,1,1"/>
    <vehicle id="left_14" type="typeWE" route="left" depart="41" color="0,1,1"/>
    <vehicle id="left_15" type="typeWE" route="left" depart="43" color="0,1,1"/>
    <vehicle id="right_16" type="typeWE" route="right" depart="46" color="0,1,1"/>
    <vehicle id="left_17" type="typeWE" route="left" depart="47" color="0,1,1"/>
    <vehicle id="up_18" type="typeNS" route="up" depart="47" color="0,1,1"/>
    <vehicle id="right_19" type="typeWE" route="right" depart="49" color="0,1,1"/>
    <vehicle id="left_20" type="typeWE" route="left" depart="49" color="0,1,1"/>
    <vehicle id="right_21" type="typeWE" route="right" depart="54" color="0,1,1"/>
    <vehicle id="left_22" type="typeWE" route="left" depart="57" color="0,1,1"/>
    <vehicle id="down_23" type="typeNS" route="down" depart="57" color="0,1,1"/>
    <vehicle id="down_24" type="typeNS" route="down" depart="58" color="0,1,1"/>
    <vehicle id="left_25" type="typeWE" route="left" depart="59" color="0,1,1"/>
    <vehicle id="left_26" type="typeWE" route="left" depart="62" color="0,1,1"/>
    <vehicle id="right_27" type="typeWE" route="right" depart="63" color="0,1,1"/>
    <vehicle id="down_28" type="typeNS" route="down" depart="63" color="0,1,1"/>
    <vehicle id="right_29" type="typeWE" route="right" depart="64" color="0,1,1"/>
    <vehicle id="right_30" type="typeWE" route="right" depart="66" color="0,1,1"/>
    <vehicle id="up_31" type="typeNS" route="up" depart="66" color="0,1,1"/>
    <vehicle id="right_32" type="typeWE" route="right" depart="70" color="0,1,1"/>
    <vehicle id="up_33" type="typeNS" route="up" depart="71" color="0,1,1"/>
    <vehicle id="down_34" type="typeNS" route="down" depart="73" color="0,1,1"/>
    <vehicle id="left_35" type="typeWE" route="left" depart="75" color="0,1,1"/>
    <vehicle id="down_36" type="typeNS" route="down" depart="76" color="0,1,1"/>
    <vehicle id="right_37" type="typeWE" route="right" depart="79" color="0,1,1"/>
    <vehicle id="left_38" type="typeWE" route="left" depart="79" color="0,1,1"/>
    <vehicle id="up_39" type="typeNS" route="up" depart="79" color="0,1,1"/>
    <vehicle id="up_40" type="typeNS" route="up" depart="87" color="0,1,1"/>
    <vehicle id="left_41" type="typeWE" route="left" depart="93" color="0,1,1"/>
    <vehicle id="up_42" type="typeNS" route="up" depart="93" color="0,1,1"/>
    <vehicle id="right_43" type="typeWE" route="right" depart="95" color="0,1,1"/>
    <vehicle id="right_44" type="typeWE" route="right" depart="97" color="0,1,1"/>
    <vehicle id="up_45" type="typeNS" route="up" depart="98" color="0,1,1"/>
    <vehicle id="up_46" type="typeNS" route="up" depart="99" color="0,1,1"/>
    <vehicle id="left_47" type="typeWE" route="left" depart="100" color="0,1,1"/>
    <vehicle id="down_48" type="typeNS" route="down" depart="110" color="0,1,1"/>
    <vehicle id="right_49" type="typeWE" route="right" depart="112" color="0,1,1"/>
    <vehicle id="up_50" type="typeNS" route="up" depart="114" color="0,1,1"/>
    <vehicle id="left_51" type="typeWE" route="left" depart="115" color="0,1,1"/>
    <vehicle id="up_52" type="typeNS" route="up" depart="116" color="0,1,1"/>
    <vehicle id="up_53" type="typeNS" route="up" depart="122" color="0,1,1"/>
    <vehicle id="down_54" type="typeNS" route="down" depart="123" color="0,1,1"/>
    <vehicle id="up_55" type="typeNS" route="up" depart="123" color="0,1,1"/>
    <vehicle id="left_56" type="typeWE" route="left" depart="126" color="0,1,1"/>
    <vehicle id="up_57" type="typeNS" route="up" depart="129" color="0,1,1"/>
    <vehicle id="up_58" type="typeNS" route="up" depart="136" color="0,1,1"/>
    <vehicle id="up_59" type="typeNS" route="up" depart="137" color="0,1,1"/>
    <vehicle id="down_60" type="typeNS" route="down" depart="139" color="0,1,1"/>
    <vehicle id="up_61" type="typeNS" route="up" depart="145" color="0,1,1"/>
    <vehicle id="left_62" type="typeWE" route="left" depart="149" color="0,1,1"/>
    <vehicle id="down_63" type="typeNS" route="down" depart="152" color="0,1,1"/>
    <vehicle id="left_64" type="typeWE" route="left" depart="154" color="0,1,1"/>
    <vehicle id="right_65" type="typeWE" route="right" depart="159" color="0,1,1"/>
    <vehicle id="right_66" type="typeWE" route="right" depart="161" color="0,1,1"/>
    <vehicle id="right_67" type="typeWE" route="right" depart="163" color="0,1,1"/>
    <vehicle id="down_68" type="typeNS" route="down" depart="163" color="0,1,1"/>
    <vehicle id="left_69" type="typeWE" route="left" depart="165" color="0,1,1"/>
    <vehicle id="right_70" type="typeWE" route="right" depart="168" color="0,1,1"/>
    <vehicle id="down_71" type="typeNS" route="down" depart="174" color="0,1,1"/>
    <vehicle id="up_72" type="typeNS" route="up" depart="187" color="0,1,1"/>
    <vehicle id="right_73" type="typeWE" route="right" depart="189" color="0,1,1"/>
    <vehicle id="down_74" type="typeNS" route="down" depart="189" color="0,1,1"/>
    <vehicle id="up_75" type="typeNS" route="up" depart="192" color="0,1,1"/>
    <vehicle id="left_76" type="typeWE" route="left" depart="198" color="0,1,1"/>
    <vehicle id="down_77" type="typeNS" route="down" depart="201" color="0,1,1"/>
    <vehicle id="down_78" type="typeNS" route="down" depart="202" color="0,1,1"/>
    <vehicle id="up_79" type="typeNS" route="up" depart="204" color="0,1,1"/>
    <vehicle id="up_80" type="typeNS" route="up" depart="209" color="0,1,1"/>
    <vehicle id="right_81" type="typeWE" route="right" depart="211" color="0,1,1"/>
    <vehicle id="down_82" type="typeNS" route="down" depart="213" color="0,1,1"/>
    <vehicle id="right_83" type="typeWE" route="right" depart="215" color="0,1,1"/>
    <vehicle id="down_84" type="typeNS" route="down" depart="216" color="0,1,1"/>
    <vehicle id="left_85" type="typeWE" route="left" depart="218" color="0,1,1"/>
    <vehicle id="up_86" type="typeNS" route="up" depart="218" color="0,1,1"/>
    <vehicle id="down_87" type="typeNS" route="down" depart="221" color="0,1,1"/>
    <vehicle id="down_88" type="typeNS" route="down" depart="225" color="0,1,1"/>
    <vehicle id="up_89" type="typeNS" route="up" depart="229" color="0,1,1"/>
    <vehicle id="left_90" type="typeWE" route="left" depart="232" color="0,1,1"/>
    <vehicle id="left_91" type="typeWE" route="left" depart="233" color="0,1,1"/>
    <vehicle id="up_92" type="typeNS" route="up" depart="233" color="0,1,1"/>
    <vehicle id="right_93" type="typeWE" route="right" depart="248" color="0,1,1"/>
    <vehicle id="down_94" type="typeNS" route="down" depart="254" color="0,1,1"/>
    <vehicle id="up_95" type="typeNS" route="up" depart="258" color="0,1,1"/>
    <vehicle id="right_96" type="typeWE" route="right" depart="259" color="0,1,1"/>
    <vehicle id="up_97" type="typeNS" route="up" depart="260" color="0,1,1"/>
    <vehicle id="down_98" type="typeNS" route="down" depart="261" color="0,1,1"/>
    <vehicle id="right_99" type="typeWE" route="right" depart="262" color="0,1,1"/>
    <vehicle id="down_100" type="typeNS" route="down" depart="265" color="0,1,1"/>
    <vehicle id="up_101" type="typeNS" route="up" depart="267" color="0,1,1"/>
    <vehicle id="down_102" type="typeNS" route="down" depart="268" color="0,1,1"/>
    <vehicle id="right_103" type="typeWE" route="right" depart="271" color="0,1,1"/>
    <vehicle id="left_104" type="typeWE" route="left" depart="271" color="0,1,1"/>
    <vehicle id="up_105" type="typeNS" route="up" depart="271" color="0,1,1"/>
    <vehicle id="left_106" type="typeWE" route="left" depart="272" color="0,1,1"/>
    <vehicle id="down_107" type="typeNS" route="down" depart="277" color="0,1,1"/>
    <vehicle id="left_108" type="typeWE" route="left" depart="281" color="0,1,1"/>
    <vehicle id="down_109" type="typeNS" route="down" depart="282" color="0,1,1"/>
    <vehicle id="left_110" type="typeWE" route="left" depart="284" color="0,1,1"/>
    <vehicle id="up_111" type="typeNS" route="up" depart="293" color="0,1,1"/>
    <vehicle id="left_112" type="typeWE" route="left" depart="294" color="0,1,1"/>
    <vehicle id="up_113" type="typeNS" route="up" depart="297" color="0,1,1"/>
    <vehicle id="right_114" type="typeWE" route="right" depart="302" color="0,1,1"/>
    <vehicle id="right_115" type="typeWE" route="right" depart="304" color="0,1,1"/>
    <vehicle id="left_116" type="typeWE" route="left" depart="306" color="0,1,1"/>
    <vehicle id="down_117" type="typeNS" route="down" depart="308" color="0,1,1"/>
    <vehicle id="right_118" type="typeWE" route="right" depart="315" color="0,1,1"/>
    <vehicle id="up_119" type="typeNS" route="up" depart="323" color="0,1,1"/>
    <vehicle id="left_120" type="typeWE" route="left" depart="324" color="0,1,1"/>
    <vehicle id="left_121" type="typeWE" route="left" depart="325" color="0,1,1"/>
    <vehicle id="up_122" type="typeNS" route="up" depart="325" color="0,1,1"/>
    <vehicle id="left_123" type="typeWE" route="left" depart="332" color="0,1,1"/>
    <vehicle id="down_124" type="typeNS" route="down" depart="335" color="0,1,1"/>
    <vehicle id="left_125" type="typeWE" route="left" depart="336" color="0,1,1"/>
    <vehicle id="down_126" type="typeNS" route="down" depart="343" color="0,1,1"/>
    <vehicle id="down_127" type="typeNS" route="down" depart="346" color="0,1,1"/>
    <vehicle id="down_128" type="typeNS" route="down" depart="347" color="0,1,1"/>
    <vehicle id="up_129" type="typeNS" route="up" depart="349" color="0,1,1"/>
    <vehicle id="up_130" type="typeNS" route="up" depart="353" color="0,1,1"/>
    <vehicle id="down_131" type="typeNS" route="down" depart="354" color="0,1,1"/>
    <vehicle id="left_132" type="typeWE" route="left" depart="356" color="0,1,1"/>
    <vehicle id="down_133" type="typeNS" route="down" depart="357" color="0,1,1"/>
    <vehicle id="up_134" type="typeNS" route="up" depart="361" color="0,1,1"/>
    <vehicle id="left_135" type="typeWE" route="left" depart="362" color="0,1,1"/>
    <vehicle id="up_136" type="typeNS" route="up" depart="362" color="0,1,1"/>
    <vehicle id="left_137" type="typeWE" route="left" depart="365" color="0,1,1"/>
    <vehicle id="left_138" type="typeWE" route="left" depart="368" color="0,1,1"/>
    <vehicle id="left_139" type="typeWE" route="left" depart="369" color="0,1,1"/>
    <vehicle id="right_140" type="typeWE" route="right" depart="370" color="0,1,1"/>
    <vehicle id="left_141" type="typeWE" route="left" depart="371" color="0,1,1"/>
    <vehicle id="down_142" type="typeNS" route="down" depart="371" color="0,1,1"/>
    <vehicle id="right_143" type="typeWE" route="right" depart="376" color="0,1,1"/>
    <vehicle id="left_144" type="typeWE" route="left" depart="377" color="0,1,1"/>
    <vehicle id="down_145" type="typeNS" route="down" depart="377" color="0,1,1"/>
    <vehicle id="up_146" type="typeNS" route="up" depart="383" color="0,1,1"/>
    <vehicle id="up_147" type="typeNS" route="up" depart="384" color="0,1,1"/>
    <vehicle id="left_148" type="typeWE" route="left" depart="391" color="0,1,1"/>
    <vehicle id="right_149" type="typeWE" route="right" depart="397" color="0,1,1"/>
    <vehicle id="left_150" type="typeWE" route="left" depart="407" color="0,1,1"/>
    <vehicle id="left_151" type="typeWE" route="left" depart="410" color="0,1,1"/>
    <vehicle id="right_152" type="typeWE" route="right" depart="412" color="0,1,1"/>
    <vehicle id="up_153" type="typeNS" route="up" depart="415" color="0,1,1"/>
    <vehicle id="left_154" type="typeWE" route="left" depart="416" color="0,1,1"/>
    <vehicle id="left_155" type="typeWE" route="left" depart="418" color="0,1,1"/>
    <vehicle id="up_156" type="typeNS" route="up" depart="419" color="0,1,1"/>
    <vehicle id="right_157" type="typeWE" route="right" depart="420" color="0,1,1"/>
    <vehicle id="up_158" type="typeNS" route="up" depart="420" color="0,1,1"/>
    <vehicle id="left_159" type="typeWE" route="left" depart="421" color="0,1,1"/>
    <vehicle id="left_160" type="typeWE" route="left" depart="422" color="0,1,1"/>
    <vehicle id="right_161" type="typeWE" route="right" depart="428" color="0,1,1"/>
    <vehicle id="right_162" type="typeWE" route="right" depart="438" color="0,1,1"/>
    <vehicle id="right_163" type="typeWE" route="right" depart="440" color="0,1,1"/>
    <vehicle id="left_164" type="typeWE" route="left" depart="443" color="0,1,1"/>
    <vehicle id="down_165" type="typeNS" route="down" depart="443" color="0,1,1"/>
    <vehicle id="right_166" type="typeWE" route="right" depart="445" color="0,1,1"/>
    <vehicle id="right_167" type="typeWE" route="right" depart="453" color="0,1,1"/>
    <vehicle id="up_168" type="typeNS" route="up" depart="457" color="0,1,1"/>
    <vehicle id="left_169" type="typeWE" route="left" depart="461" color="0,1,1"/>
    <vehicle id="down_170" type="typeNS" route="down" depart="461" color="0,1,1"/>
    <vehicle id="up_171" type="typeNS" route="up" depart="461" color="0,1,1"/>
    <vehicle id="right_172" type="typeWE" route="right" depart="463" color="0,1,1"/>
    <vehicle id="right_173" type="typeWE" route="right" depart="464" color="0,1,1"/>
    <vehicle id="left_174" type="typeWE" route="left" depart="467" color="0,1,1"/>
    <vehicle id="up_175" type="typeNS" route="up" depart="470" color="0,1,1"/>
    <vehicle id="up_176" type="typeNS" route="up" depart="472" color="0,1,1"/>
    <vehicle id="down_177" type="typeNS" route="down" depart="474" color="0,1,1"/>
    <vehicle id="left_178" type="typeWE" route="left" depart="475" color="0,1,1"/>
    <vehicle id="down_179" type="typeNS" route="down" depart="475" color="0,1,1"/>
    <vehicle id="down_180" type="typeNS" route="down" depart="477" color="0,1,1"/>
    <vehicle id="left_181" type="typeWE" route="left" depart="479" color="0,1,1"/>
    <vehicle id="up_182" type="typeNS" route="up" depart="480" color="0,1,1"/>
    <vehicle id="down_183" type="typeNS" route="down" depart="481" color="0,1,1"/>
    <vehicle id="left_184" type="typeWE" route="left" depart="483" color="0,1,1"/>
    <vehicle id="down_185" type="typeNS" route="down" depart="484" color="0,1,1"/>
    <vehicle id="left_186" type="typeWE" route="left" depart="486" color="0,1,1"/>
    <vehicle id="left_187" type="typeWE" route="left" depart="487" color="0,1,1"/>
    <vehicle id="down_188" type="typeNS" route="down" depart="490" color="0,1,1"/>
    <vehicle id="left_189" type="typeWE" route="left" depart="493" color="0,1,1"/>
    <vehicle id="left_190" type="typeWE" route="left" depart="494" color="0,1,1"/>
    <vehicle id="up_191" type="typeNS" route="up" depart="495" color="0,1,1"/>
    <vehicle id="down_192" type="typeNS" route="down" depart="500" color="0,1,1"/>
    <vehicle id="left_193" type="typeWE" route="left" depart="502" color="0,1,1"/>
    <vehicle id="up_194" type="typeNS" route="up" depart="505" color="0,1,1"/>
    <vehicle id="left_195" type="typeWE" route="left" depart="507" color="0,1,1"/>
    <vehicle id="up_196" type="typeNS" route="up" depart="508" color="0,1,1"/>
    <vehicle id="right_197" type="typeWE" route="right" depart="513" color="0,1,1"/>
    <vehicle id="down_198" type="typeNS" route="down" depart="515" color="0,1,1"/>
    <vehicle id="up_199" type="typeNS" route="up" depart="516" color="0,1,1"/>
    <vehicle id="up_200" type="typeNS" route="up" depart="533" color="0,1,1"/>
    <vehicle id="down_201" type="typeNS" route="down" depart="534" color="0,1,1"/>
    <vehicle id="right_202" type="typeWE" route="right" depart="537" color="0,1,1"/>
    <vehicle id="left_203" type="typeWE" route="left" depart="538" color="0,1,1"/>
    <vehicle id="up_204" type="typeNS" route="up" depart="540" color="0,1,1"/>
    <vehicle id="left_205" type="typeWE" route="left" depart="542" color="0,1,1"/>
    <vehicle id="down_206" type="typeNS" route="down" depart="542" color="0,1,1"/>
    <vehicle id="left_207" type="typeWE" route="left" depart="546" color="0,1,1"/>
    <vehicle id="down_208" type="typeNS" route="down" depart="552" color="0,1,1"/>
    <vehicle id="up_209" type="typeNS" route="up" depart="553" color="0,1,1"/>
    <vehicle id="right_210" type="typeWE" route="right" depart="554" color="0,1,1"/>
    <vehicle id="down_211" type="typeNS" route="down" depart="554" color="0,1,1"/>
    <vehicle id="up_212" type="typeNS" route="up" depart="556" color="0,1,1"/>
    <vehicle id="right_213" type="typeWE" route="right" depart="557" color="0,1,1"/>
    <vehicle id="left_214" type="typeWE" route="left" depart="557" color="0,1,1"/>
    <vehicle id="right_215" type="typeWE" route="right" depart="558" color="0,1,1"/>
    <vehicle id="down_216" type="typeNS" route="down" depart="561" color="0,1,1"/>
    <vehicle id="left_217" type="typeWE" route="left" depart="563" color="0,1,1"/>
    <vehicle id="left_218" type="typeWE" route="left" depart="571" color="0,1,1"/>
    <vehicle id="up_219" type="typeNS" route="up" depart="572" color="0,1,1"/>
    <vehicle id="down_220" type="typeNS" route="down" depart="574" color="0,1,1"/>
    <vehicle id="down_221" type="typeNS" route="down" depart="579" color="0,1,1"/>
    <vehicle id="right_222" type="typeWE" route="right" depart="581" color="0,1,1"/>
    <vehicle id="down_223" type="typeNS" route="down" depart="583" color="0,1,1"/>
    <vehicle id="left_224" type="typeWE" route="left" depart="591" color="0,1,1"/>
    <vehicle id="right_225" type="typeWE" route="right" depart="592" color="0,1,1"/>
    <vehicle id="right_226" type="typeWE" route="right" depart="593" color="0,1,1"/>
    <vehicle id="right_227" type="typeWE" route="right" depart="595" color="0,1,1"/>
    <vehicle id="up_228" type="typeNS" route="up" depart="597" color="0,1,1"/>
    <vehicle id="right_229" type="typeWE" route="right" depart="598" color="0,1,1"/>
    <vehicle id="left_230" type="typeWE" route="left" depart="601" color="0,1,1"/>
    <vehicle id="up_231" type="typeNS" route="up" depart="601" color="0,1,1"/>
    <vehicle id="right_232" type="typeWE" route="right" depart="604" color="0,1,1"/>
    <vehicle id="left_233" type="typeWE" route="left" depart="604" color="0,1,1"/>
    <vehicle id="up_234" type="typeNS" route="up" depart="604" color="0,1,1"/>
    <vehicle id="down_235" type="typeNS" route="down" depart="612" color="0,1,1"/>
    <vehicle id="left_236" type="typeWE" route="left" depart="615" color="0,1,1"/>
    <vehicle id="up_237" type="typeNS" route="up" depart="617" color="0,1,1"/>
    <vehicle id="right_238" type="typeWE" route="right" depart="623" color="0,1,1"/>
    <vehicle id="up_239" type="typeNS" route="up" depart="624" color="0,1,1"/>
    <vehicle id="up_240" type="typeNS" route="up" depart="630" color="0,1,1"/>
    <vehicle id="down_241" type="typeNS" route="down" depart="631" color="0,1,1"/>
    <vehicle id="right_242" type="typeWE" route="right" depart="632" color="0,1,1"/>
    <vehicle id="left_243" type="typeWE" route="left" depart="633" color="0,1,1"/>
    <vehicle id="left_244" type="typeWE" route="left" depart="634" color="0,1,1"/>
    <vehicle id="up_245" type="typeNS" route="up" depart="635" color="0,1,1"/>
    <vehicle id="right_246" type="typeWE" route="right" depart="643" color="0,1,1"/>
    <vehicle id="down_247" type="typeNS" route="down" depart="643" color="0,1,1"/>
    <vehicle id="left_248" type="typeWE" route="left" depart="645" color="0,1,1"/>
    <vehicle id="down_249" type="typeNS" route="down" depart="647" color="0,1,1"/>
    <vehicle id="right_250" type="typeWE" route="right" depart="648" color="0,1,1"/>
    <vehicle id="left_251" type="typeWE" route="left" depart="652" color="0,1,1"/>
    <vehicle id="left_252" type="typeWE" route="left" depart="654" color="0,1,1"/>
    <vehicle id="down_253" type="typeNS" route="down" depart="655" color="0,1,1"/>
    <vehicle id="right_254" type="typeWE" route="right" depart="659" color="0,1,1"/>
    <vehicle id="right_255" type="typeWE" route="right" depart="665" color="0,1,1"/>
    <vehicle id="left_256" type="typeWE" route="left" depart="670" color="0,1,1"/>
    <vehicle id="right_257" type="typeWE" route="right" depart="674" color="0,1,1"/>
    <vehicle id="up_258" type="typeNS" route="up" depart="675" color="0,1,1"/>
    <vehicle id="right_259" type="typeWE" route="right" depart="681" color="0,1,1"/>
    <vehicle id="left_260" type="typeWE" route="left" depart="682" color="0,1,1"/>
    <vehicle id="up_261" type="typeNS" route="up" depart="682" color="0,1,1"/>
    <vehicle id="left_262" type="typeWE" route="left" depart="683" color="0,1,1"/>
    <vehicle id="up_263" type="typeNS" route="up" depart="687" color="0,1,1"/>
    <vehicle id="left_264" type="typeWE" route="left" depart="688" color="0,1,1"/>
    <vehicle id="down_265" type="typeNS" route="down" depart="688" color="0,1,1"/>
    <vehicle id="up_266" type="typeNS" route="up" depart="689" color="0,1,1"/>
    <vehicle id="up_267" type="typeNS" route="up" depart="694" color="0,1,1"/>
    <vehicle id="left_268" type="typeWE" route="left" depart="695" color="0,1,1"/>
    <vehicle id="up_269" type="typeNS" route="up" depart="696" color="0,1,1"/>
    <vehicle id="right_270" type="typeWE" route="right" depart="697" color="0,1,1"/>
    <vehicle id="down_271" type="typeNS" route="down" depart="699" color="0,1,1"/>
    <vehicle id="right_272" type="typeWE" route="right" depart="705" color="0,1,1"/>
    <vehicle id="right_273" type="typeWE" route="right" depart="714" color="0,1,1"/>
    <vehicle id="right_274" type="typeWE" route="right" depart="717" color="0,1,1"/>
    <vehicle id="left_275" type="typeWE" route="left" depart="717" color="0,1,1"/>
    <vehicle id="up_276" type="typeNS" route="up" depart="719" color="0,1,1"/>
    <vehicle id="down_277" type="typeNS" route="down" depart="722" color="0,1,1"/>
    <vehicle id="right_278" type="typeWE" route="right" depart="724" color="0,1,1"/>
    <vehicle id="up_279" type="typeNS" route="up" depart="724" color="0,1,1"/>
    <vehicle id="right_280" type="typeWE" route="right" depart="727" color="0,1,1"/>
    <vehicle id="down_281" type="typeNS" route="down" depart="727" color="0,1,1"/>
    <vehicle id="right_282" type="typeWE" route="right" depart="729" color="0,1,1"/>
    <vehicle id="right_283" type="typeWE" route="right" depart="734" color="0,1,1"/>
    <vehicle id="down_284" type="typeNS" route="down" depart="736" color="0,1,1"/>
    <vehicle id="up_285" type="typeNS" route="up" depart="736" color="0,1,1"/>
    <vehicle id="left_286" type="typeWE" route="left" depart="740" color="0,1,1"/>
    <vehicle id="up_287" type="typeNS" route="up" depart="743" color="0,1,1"/>
    <vehicle id="down_288" type="typeNS" route="down" depart="749" color="0,1,1"/>
    <vehicle id="up_289" type="typeNS" route="up" depart="750" color="0,1,1"/>
    <vehicle id="up_290" type="typeNS" route="up" depart="753" color="0,1,1"/>
    <vehicle id="right_291" type="typeWE" route="right" depart="760" color="0,1,1"/>
    <vehicle id="down_292" type="typeNS" route="down" depart="761" color="0,1,1"/>
    <vehicle id="up_293" type="typeNS" route="up" depart="764" color="0,1,1"/>
    <vehicle id="up_294" type="typeNS" route="up" depart="765" color="0,1,1"/>
    <vehicle id="down_295" type="typeNS" route="down" depart="767" color="0,1,1"/>
    <vehicle id="up_296" type="typeNS" route="up" depart="769" color="0,1,1"/>
    <vehicle id="right_297" type="typeWE" route="right" depart="770" color="0,1,1"/>
    <vehicle id="down_298" type="typeNS" route="down" depart="778" color="0,1,1"/>
    <vehicle id="left_299" type="typeWE" route="left" depart="785" color="0,1,1"/>
    <vehicle id="down_300" type="typeNS" route="down" depart="788" color="0,1,1"/>
    <vehicle id="up_301" type="typeNS" route="up" depart="788" color="0,1,1"/>
    <vehicle id="up_302" type="typeNS" route="up" depart="792" color="0,1,1"/>
    <vehicle id="right_303" type="typeWE" route="right" depart="795" color="0,1,1"/>
    <vehicle id="down_304" type="typeNS" route="down" depart="797" color="0,1,1"/>
    <vehicle id="down_305" type="typeNS" route="down" depart="798" color="0,1,1"/>
    <vehicle id="right_306" type="typeWE" route="right" depart="802" color="0,1,1"/>
    <vehicle id="right_307" type="typeWE" route="right" depart="803" color="0,1,1"/>
    <vehicle id="left_308" type="typeWE" route="left" depart="804" color="0,1,1"/>
    <vehicle id="right_309" type="typeWE" route="right" depart="806" color="0,1,1"/>
    <vehicle id="up_310" type="typeNS" route="up" depart="808" color="0,1,1"/>
    <vehicle id="left_311" type="typeWE" route="left" depart="815" color="0,1,1"/>
    <vehicle id="up_312" type="typeNS" route="up" depart="820" color="0,1,1"/>
    <vehicle id="up_313" type="typeNS" route="up" depart="821" color="0,1,1"/>
    <vehicle id="left_314" type="typeWE" route="left" depart="822" color="0,1,1"/>
    <vehicle id="right_315" type="typeWE" route="right" depart="836" color="0,1,1"/>
    <vehicle id="left_316" type="typeWE" route="left" depart="841" color="0,1,1"/>
    <vehicle id="down_317" type="typeNS" route="down" depart="850" color="0,1,1"/>
    <vehicle id="right_318" type="typeWE" route="right" depart="852" color="0,1,1"/>
    <vehicle id="left_319" type="typeWE" route="left" depart="853" color="0,1,1"/>
    <vehicle id="left_320" type="typeWE" route="left" depart="854" color="0,1,1"/>
    <vehicle id="up_321" type="typeNS" route="up" depart="855" color="0,1,1"/>
    <vehicle id="left_322" type="typeWE" route="left" depart="858" color="0,1,1"/>
    <vehicle id="down_323" type="typeNS" route="down" depart="870" color="0,1,1"/>
    <vehicle id="down_324" type="typeNS" route="down" depart="873" color="0,1,1"/>
    <vehicle id="up_325" type="typeNS" route="up" depart="873" color="0,1,1"/>
    <vehicle id="down_326" type="typeNS" route="down" depart="881" color="0,1,1"/>
    <vehicle id="down_327" type="typeNS" route="down" depart="883" color="0,1,1"/>
    <vehicle id="up_328" type="typeNS" route="up" depart="883" color="0,1,1"/>
    <vehicle id="left_329" type="typeWE" route="left" depart="885" color="0,1,1"/>
    <vehicle id="down_330" type="typeNS" route="down" depart="909" color="0,1,1"/>
    <vehicle id="up_331" type="typeNS" route="up" depart="914" color="0,1,1"/>
    <vehicle id="up_332" type="typeNS" route="up" depart="920" color="0,1,1"/>
    <vehicle id="right_333" type="typeWE" route="right" depart="925" color="0,1,1"/>
    <vehicle id="up_334" type="typeNS" route="up" depart="925" color="0,1,1"/>
    <vehicle id="up_335" type="typeNS" route="up" depart="927" color="0,1,1"/>
    <vehicle id="up_336" type="typeNS" route="up" depart="930" color="0,1,1"/>
    <vehicle id="down_337" type="typeNS" route="down" depart="932" color="0,1,1"/>
    <vehicle id="up_338" type="typeNS" route="up" depart="935" color="0,1,1"/>
    <vehicle id="left_339" type="typeWE" route="left" depart="936" color="0,1,1"/>
    <vehicle id="left_340" type="typeWE" route="left" depart="939" color="0,1,1"/>
    <vehicle id="down_341" type="typeNS" route="down" depart="939" color="0,1,1"/>
    <vehicle id="up_342" type="typeNS" route="up" depart="942" color="0,1,1"/>
    <vehicle id="left_343" type="typeWE" route="left" depart="947" color="0,1,1"/>
    <vehicle id="down_344" type="typeNS" route="down" depart="947" color="0,1,1"/>
    <vehicle id="up_345" type="typeNS" route="up" depart="947" color="0,1,1"/>
    <vehicle id="right_346" type="typeWE" route="right" depart="948" color="0,1,1"/>
    <vehicle id="down_347" type="typeNS" route="down" depart="952" color="0,1,1"/>
    <vehicle id="right_348" type="typeWE" route="right" depart="959" color="0,1,1"/>
    <vehicle id="up_349" type="typeNS" route="up" depart="960" color="0,1,1"/>
    <vehicle id="up_350" type="typeNS" route="up" depart="963" color="0,1,1"/>
    <vehicle id="right_351" type="typeWE" route="right" depart="968" color="0,1,1"/>
    <vehicle id="left_352" type="typeWE" route="left" depart="968" color="0,1,1"/>
    <vehicle id="left_353" type="typeWE" route="left" depart="969" color="0,1,1"/>
    <vehicle id="left_354" type="typeWE" route="left" depart="979" color="0,1,1"/>
    <vehicle id="right_355" type="typeWE" route="right" depart="981" color="0,1,1"/>
    <vehicle id="right_356" type="typeWE" route="right" depart="982" color="0,1,1"/>
    <vehicle id="left_357" type="typeWE" route="left" depart="985" color="0,1,1"/>
    <vehicle id="left_358" type="typeWE" route="left" depart="987" color="0,1,1"/>
    <vehicle id="down_359" type="typeNS" route="down" depart="989" color="0,1,1"/>