<routes>
        <vType id="typeWE" accel="0.8" decel="4.5" sigma="0.5" length="5" minGap="2.5" maxSpeed="16.67" guiShape="passenger"/>
        <vType id="typeNS" accel="0.8" decel="4.5" sigma="0.5" length="7" minGap="3" maxSpeed="25" guiShape="bus"/>

        <route id="right" edges="51o 1i 2o 52i" />
        <route id="up" edges="53o 3i 4o 54i" />
        <route id="left" edges="52o 2i 1o 51i" />
        <route id="down" edges="54o 4i 3o 53i" />
    <vehicle id="left_0" type="typeWE" route="left" depart="0" />
    <vehicle id="left_1" type="typeWE" route="left" depart="2" />
    <vehicle id="right_2" type="typeWE" route="right" depart="3" />
    <vehicle id="up_3" type="typeNS" route="up" depart="4" color="1,0,0"/>
    <vehicle id="left_4" type="typeWE" route="left" depart="10" />
    <vehicle id="right_5" type="typeWE" route="right" depart="11" />
    <vehicle id="up_6" type="typeNS" route="up" depart="16" color="1,0,0"/>
    <vehicle id="right_7" type="typeWE" route="right" depart="22" />
    <vehicle id="left_8" type="typeWE" route="left" depart="22" />
    <vehicle id="right_9" type="typeWE" route="right" depart="25" />
    <vehicle id="right_10" type="typeWE" route="right" depart="31" />
    <vehicle id="down_11" type="typeNS" route="down" depart="31" color="1,0,0"/>
    <vehicle id="right_12" type="typeWE" route="right" depart="34" />
    <vehicle id="right_13" type="typeWE" route="right" depart="40" />
    <vehicle id="left_14" type="typeWE" route="left" depart="41" />
    <vehicle id="right_15" type="typeWE" route="right" depart="44" />
    <vehicle id="left_16" type="typeWE" route="left" depart="49" />
    <vehicle id="right_17" type="typeWE" route="right" depart="56" />
    <vehicle id="right_18" type="typeWE" route="right" depart="63" />
    <vehicle id="right_19" type="typeWE" route="right" depart="64" />
    <vehicle id="left_20" type="typeWE" route="left" depart="67" />
    <vehicle id="down_21" type="typeNS" route="down" depart="72" color="1,0,0"/>
    <vehicle id="left_22" type="typeWE" route="left" depart="74" />
    <vehicle id="right_23" type="typeWE" route="right" depart="81" />
    <vehicle id="down_24" type="typeNS" route="down" depart="85" color="1,0,0"/>
    <vehicle id="right_25" type="typeWE" route="right" depart="92" />
    <vehicle id="down_26" type="typeNS" route="down" depart="98" color="1,0,0"/>
    <vehicle id="up_27" type="typeNS" route="up" depart="103" color="1,0,0"/>
    <vehicle id="up_28" type="typeNS" route="up" depart="106" color="1,0,0"/>
    <vehicle id="right_29" type="typeWE" route="right" depart="115" />
    <vehicle id="left_30" type="typeWE" route="left" depart="117" />
    <vehicle id="left_31" type="typeWE" route="left" depart="120" />
    <vehicle id="left_32" type="typeWE" route="left" depart="123" />
    <vehicle id="left_33" type="typeWE" route="left" depart="125" />
    <vehicle id="right_34" type="typeWE" route="right" depart="126" />
    <vehicle id="right_35" type="typeWE" route="right" depart="127" />
    <vehicle id="left_36" type="typeWE" route="left" depart="129" />
    <vehicle id="down_37" type="typeNS" route="down" depart="129" color="1,0,0"/>
    <vehicle id="right_38" type="typeWE" route="right" depart="132" />
    <vehicle id="up_39" type="typeNS" route="up" depart="135" color="1,0,0"/>
    <vehicle id="left_40" type="typeWE" route="left" depart="137" />
    <vehicle id="left_41" type="typeWE" route="left" depart="147" />
    <vehicle id="down_42" type="typeNS" route="down" depart="149" color="1,0,0"/>
    <vehicle id="right_43" type="typeWE" route="right" depart="150" />
    <vehicle id="right_44" type="typeWE" route="right" depart="152" />
    <vehicle id="left_45" type="typeWE" route="left" depart="159" />
    <vehicle id="right_46" type="typeWE" route="right" depart="164" />
    <vehicle id="right_47" type="typeWE" route="right" depart="171" />
    <vehicle id="right_48" type="typeWE" route="right" depart="179" />
    <vehicle id="right_49" type="typeWE" route="right" depart="180" />
    <vehicle id="right_50" type="typeWE" route="right" depart="182" />
    <vehicle id="left_51" type="typeWE" route="left" depart="204" />
    <vehicle id="right_52" type="typeWE" route="right" depart="213" />
    <vehicle id="right_53" type="typeWE" route="right" depart="216" />
    <vehicle id="left_54" type="typeWE" route="left" depart="218" />
    <vehicle id="down_55" type="typeNS" route="down" depart="220" color="1,0,0"/>
    <vehicle id="right_56" type="typeWE" route="right" depart="227" />
    <vehicle id="left_57" type="typeWE" route="left" depart="232" />
    <vehicle id="right_58" type="typeWE" route="right" depart="239" />
    <vehicle id="down_59" type="typeNS" route="down" depart="241" color="1,0,0"/>
    <vehicle id="right_60" type="typeWE" route="right" depart="245" />
    <vehicle id="up_61" type="typeNS" route="up" depart="248" color="1,0,0"/>
    <vehicle id="right_62" type="typeWE" route="right" depart="250" />
    <vehicle id="left_63" type="typeWE" route="left" depart="253" />
    <vehicle id="down_64" type="typeNS" route="down" depart="256" color="1,0,0"/>
    <vehicle id="left_65" type="typeWE" route="left" depart="258" />
    <vehicle id="down_66" type="typeNS" route="down" depart="258" color="1,0,0"/>
    <vehicle id="left_67" type="typeWE" route="left" depart="262" />
    <vehicle id="left_68" type="typeWE" route="left" depart="265" />
    <vehicle id="right_69" type="typeWE" route="right" depart="266" />
    <vehicle id="left_70" type="typeWE" route="left" depart="281" />
    <vehicle id="left_71" type="typeWE" route="left" depart="283" />
    <vehicle id="up_72" type="typeNS" route="up" depart="284" color="1,0,0"/>
    <vehicle id="right_73" type="typeWE" route="right" depart="287" />
    <vehicle id="left_74" type="typeWE" route="left" depart="287" />
    <vehicle id="left_75" type="typeWE" route="left" depart="291" />
    <vehicle id="right_76" type="typeWE" route="right" depart="292" />
    <vehicle id="down_77" type="typeNS" route="down" depart="293" color="1,0,0"/>
    <vehicle id="right_78" type="typeWE" route="right" depart="296" />
    <vehicle id="left_79" type="typeWE" route="left" depart="296" />
    <vehicle id="left_80" type="typeWE" route="left" depart="298" />
    <vehicle id="right_81" type="typeWE" route="right" depart="309" />
    <vehicle id="right_82" type="typeWE" route="right" depart="310" />
    <vehicle id="right_83" type="typeWE" route="right" depart="311" />
    <vehicle id="left_84" type="typeWE" route="left" depart="315" />
    <vehicle id="right_85" type="typeWE" route="right" depart="320" />
    <vehicle id="right_86" type="typeWE" route="right" depart="329" />
    <vehicle id="left_87" type="typeWE" route="left" depart="343" />
    <vehicle id="up_88" type="typeNS" route="up" depart="344" color="1,0,0"/>
    <vehicle id="up_89" type="typeNS" route="up" depart="347" color="1,0,0"/>
    <vehicle id="right_90" type="typeWE" route="right" depart="348" />
    <vehicle id="left_91" type="typeWE" route="left" depart="350" />
    <vehicle id="right_92" type="typeWE" route="right" depart="352" />
    <vehicle id="left_93" type="typeWE" route="left" depart="354" />
    <vehicle id="left_94" type="typeWE" route="left" depart="357" />
    <vehicle id="left_95" type="typeWE" route="left" depart="359" />
    <vehicle id="right_96" type="typeWE" route="right" depart="363" />
    <vehicle id="left_97" type="typeWE" route="left" depart="369" />
    <vehicle id="left_98" type="typeWE" route="left" depart="372" />
    <vehicle id="right_99" type="typeWE" route="right" depart="374" />
    <vehicle id="left_100" type="typeWE" route="left" depart="376" />
    <vehicle id="right_101" type="typeWE" route="right" depart="389" />
    <vehicle id="left_102" type="typeWE" route="left" depart="392" />
    <vehicle id="right_103" type="typeWE" route="right" depart="402" />
    <vehicle id="left_104" type="typeWE" route="left" depart="402" />
    <vehicle id="right_105" type="typeWE" route="right" depart="406" />
    <vehicle id="left_106" type="typeWE" route="left" depart="406" />
    <vehicle id="left_107" type="typeWE" route="left" depart="414" />
    <vehicle id="left_108" type="typeWE" route="left" depart="430" />
    <vehicle id="up_109" type="typeNS" route="up" depart="433" color="1,0,0"/>
    <vehicle id="down_110" type="typeNS" route="down" depart="434" color="1,0,0"/>
    <vehicle id="up_111" type="typeNS" route="up" depart="451" color="1,0,0"/>
    <vehicle id="right_112" type="typeWE" route="right" depart="459" />
    <vehicle id="down_113" type="typeNS" route="down" depart="468" color="1,0,0"/>
    <vehicle id="left_114" type="typeWE" route="left" depart="469" />
    <vehicle id="right_115" type="typeWE" route="right" depart="477" />
    <vehicle id="right_116" type="typeWE" route="right" depart="481" />
    <vehicle id="right_117" type="typeWE" route="right" depart="483" />
    <vehicle id="left_118" type="typeWE" route="left" depart="484" />
    <vehicle id="up_119" type="typeNS" route="up" depart="484" color="1,0,0"/>
    <vehicle id="left_120" type="typeWE" route="left" depart="490" />
    <vehicle id="down_121" type="typeNS" route="down" depart="490" color="1,0,0"/>
    <vehicle id="down_122" type="typeNS" route="down" depart="494" color="1,0,0"/>
    <vehicle id="left_123" type="typeWE" route="left" depart="495" />
    <vehicle id="right_124" type="typeWE" route="right" depart="496" />
    <vehicle id="right_125" type="typeWE" route="right" depart="501" />
    <vehicle id="down_126" type="typeNS" route="down" depart="512" color="1,0,0"/>
    <vehicle id="right_127" type="typeWE" route="right" depart="517" />
    <vehicle id="right_128" type="typeWE" route="right" depart="528" />
    <vehicle id="right_129" type="typeWE" route="right" depart="530" />
    <vehicle id="down_130" type="typeNS" route="down" depart="530" color="1,0,0"/>
    <vehicle id="down_131" type="typeNS" route="down" depart="531" color="1,0,0"/>
    <vehicle id="right_132" type="typeWE" route="right" depart="533" />
    <vehicle id="right_133" type="typeWE" route="right" depart="538" />
    <vehicle id="left_134" type="typeWE" route="left" depart="538" />
    <vehicle id="right_135" type="typeWE" route="right" depart="540" />
    <vehicle id="right_136" type="typeWE" route="right" depart="542" />
    <vehicle id="right_137" type="typeWE" route="right" depart="543" />
    <vehicle id="right_138" type="typeWE" route="right" depart="545" />
    <vehicle id="left_139" type="typeWE" route="left" depart="548" />
    <vehicle id="left_140" type="typeWE" route="left" depart="550" />
    <vehicle id="left_141" type="typeWE" route="left" depart="555" />
    <vehicle id="down_142" type="typeNS" route="down" depart="557" color="1,0,0"/>
    <vehicle id="right_143" type="typeWE" route="right" depart="558" />
    <vehicle id="right_144" type="typeWE" route="right" depart="562" />
    <vehicle id="right_145" type="typeWE" route="right" depart="563" />
    <vehicle id="left_146" type="typeWE" route="left" depart="576" />
    <vehicle id="down_147" type="typeNS" route="down" depart="582" color="1,0,0"/>
    <vehicle id="down_148" type="typeNS" route="down" depart="585" color="1,0,0"/>
    <vehicle id="up_149" type="typeNS" route="up" depart="593" color="1,0,0"/>
    <vehicle id="right_150" type="typeWE" route="right" depart="596" />
    <vehicle id="right_151" type="typeWE" route="right" depart="601" />
    <vehicle id="right_152" type="typeWE" route="right" depart="606" />
    <vehicle id="down_153" type="typeNS" route="down" depart="606" color="1,0,0"/>
    <vehicle id="right_154" type="typeWE" route="right" depart="609" />
    <vehicle id="left_155" type="typeWE" route="left" depart="609" />
    <vehicle id="left_156" type="typeWE" route="left" depart="613" />
    <vehicle id="right_157" type="typeWE" route="right" depart="629" />
    <vehicle id="right_158" type="typeWE" route="right" depart="634" />
    <vehicle id="up_159" type="typeNS" route="up" depart="635" color="1,0,0"/>
    <vehicle id="up_160" type="typeNS" route="up" depart="640" color="1,0,0"/>
    <vehicle id="right_161" type="typeWE" route="right" depart="642" />
    <vehicle id="up_162" type="typeNS" route="up" depart="646" color="1,0,0"/>
    <vehicle id="right_163" type="typeWE" route="right" depart="649" />
    <vehicle id="left_164" type="typeWE" route="left" depart="651" />
    <vehicle id="left_165" type="typeWE" route="left" depart="659" />
    <vehicle id="right_166" type="typeWE" route="right" depart="660" />
    <vehicle id="left_167" type="typeWE" route="left" depart="660" />
    <vehicle id="right_168" type="typeWE" route="right" depart="662" />
    <vehicle id="left_169" type="typeWE" route="left" depart="665" />
    <vehicle id="left_170" type="typeWE" route="left" depart="666" />
    <vehicle id="up_171" type="typeNS" route="up" depart="671" color="1,0,0"/>
    <vehicle id="left_172" type="typeWE" route="left" depart="673" />
    <vehicle id="left_173" type="typeWE" route="left" depart="676" />
    <vehicle id="left_174" type="typeWE" route="left" depart="680" />
    <vehicle id="left_175" type="typeWE" route="left" depart="682" />
    <vehicle id="up_176" type="typeNS" route="up" depart="683" color="1,0,0"/>
    <vehicle id="right_177" type="typeWE" route="right" depart="687" />
    <vehicle id="up_178" type="typeNS" route="up" depart="688" color="1,0,0"/>
    <vehicle id="left_179" type="typeWE" route="left" depart="693" />
    <vehicle id="left_180" type="typeWE" route="left" depart="694" />
    <vehicle id="left_181" type="typeWE" route="left" depart="697" />
    <vehicle id="left_182" type="typeWE" route="left" depart="704" />
    <vehicle id="left_183" type="typeWE" route="left" depart="706" />
    <vehicle id="right_184" type="typeWE" route="right" depart="709" />
    <vehicle id="left_185" type="typeWE" route="left" depart="709" />
    <vehicle id="right_186" type="typeWE" route="right" depart="711" />
    <vehicle id="down_187" type="typeNS" route="down" depart="712" color="1,0,0"/>
    <vehicle id="left_188" type="typeWE" route="left" depart="714" />
    <vehicle id="left_189" type="typeWE" route="left" depart="721" />
    <vehicle id="right_190" type="typeWE" route="right" depart="724" />
    <vehicle id="left_191" type="typeWE" route="left" depart="727" />
    <vehicle id="right_192" type="typeWE" route="right" depart="730" />
    <vehicle id="right_193" type="typeWE" route="right" depart="731" />
    <vehicle id="right_194" type="typeWE" route="right" depart="733" />
    <vehicle id="up_195" type="typeNS" route="up" depart="741" color="1,0,0"/>
    <vehicle id="right_196" type="typeWE" route="right" depart="745" />
    <vehicle id="down_197" type="typeNS" route="down" depart="747" color="1,0,0"/>
    <vehicle id="right_198" type="typeWE" route="right" depart="751" />
    <vehicle id="left_199" type="typeWE" route="left" depart="752" />
    <vehicle id="up_200" type="typeNS" route="up" depart="754" color="1,0,0"/>
    <vehicle id="left_201" type="typeWE" route="left" depart="758" />
    <vehicle id="up_202" type="typeNS" route="up" depart="760" color="1,0,0"/>
    <vehicle id="right_203" type="typeWE" route="right" depart="763" />
    <vehicle id="left_204" type="typeWE" route="left" depart="766" />
    <vehicle id="left_205" type="typeWE" route="left" depart="782" />
    <vehicle id="left_206" type="typeWE" route="left" depart="785" />
    <vehicle id="down_207" type="typeNS" route="down" depart="792" color="1,0,0"/>
    <vehicle id="up_208" type="typeNS" route="up" depart="795" color="1,0,0"/>
    <vehicle id="right_209" type="typeWE" route="right" depart="801" />
    <vehicle id="up_210" type="typeNS" route="up" depart="801" color="1,0,0"/>
    <vehicle id="up_211" type="typeNS" route="up" depart="802" color="1,0,0"/>
    <vehicle id="right_212" type="typeWE" route="right" depart="814" />
    <vehicle id="right_213" type="typeWE" route="right" depart="823" />
    <vehicle id="left_214" type="typeWE" route="left" depart="828" />
    <vehicle id="right_215" type="typeWE" route="right" depart="830" />
    <vehicle id="left_216" type="typeWE" route="left" depart="832" />
    <vehicle id="left_217" type="typeWE" route="left" depart="841" />
    <vehicle id="left_218" type="typeWE" route="left" depart="842" />
    <vehicle id="left_219" type="typeWE" route="left" depart="843" />
    <vehicle id="left_220" type="typeWE" route="left" depart="850" />
    <vehicle id="down_221" type="typeNS" route="down" depart="851" color="1,0,0"/>
    <vehicle id="right_222" type="typeWE" route="right" depart="853" />
    <vehicle id="right_223" type="typeWE" route="right" depart="857" />
    <vehicle id="left_224" type="typeWE" route="left" depart="865" />
    <vehicle id="left_225" type="typeWE" route="left" depart="867" />
    <vehicle id="left_226" type="typeWE" route="left" depart="874" />
    <vehicle id="left_227" type="typeWE" route="left" depart="875" />
    <vehicle id="left_228" type="typeWE" route="left" depart="879" />
    <vehicle id="right_229" type="typeWE" route="right" depart="886" />
    <vehicle id="left_230" type="typeWE" route="left" depart="892" />
    <vehicle id="right_231" type="typeWE" route="right" depart="906" />
    <vehicle id="right_232" type="typeWE" route="right" depart="909" />
    <vehicle id="up_233" type="typeNS" route="up" depart="913" color="1,0,0"/>
    <vehicle id="left_234" type="typeWE" route="left" depart="924" />
    <vehicle id="right_235" type="typeWE" route="right" depart="928" />
    <vehicle id="up_236" type="typeNS" route="up" depart="934" color="1,0,0"/>
    <vehicle id="right_237" type="typeWE" route="right" depart="935" />
    <vehicle id="right_238" type="typeWE" route="right" depart="939" />
    <vehicle id="left_239" type="typeWE" route="left" depart="939" />
    <vehicle id="down_240" type="typeNS" route="down" depart="941" color="1,0,0"/>
    <vehicle id="left_241" type="typeWE" route="left" depart="950" />
    <vehicle id="left_242" type="typeWE" route="left" depart="956" />
    <vehicle id="right_243" type="typeWE" route="right" depart="961" />
    <vehicle id="left_244" type="typeWE" route="left" depart="966" />
    <vehicle id="up_245" type="typeNS" route="up" depart="966" color="1,0,0"/>
    <vehicle id="left_246" type="typeWE" route="left" depart="967" />
    <vehicle id="right_247" type="typeWE" route="right" depart="976" />
    <vehicle id="right_248" type="typeWE" route="right" depart="978" />
    <vehicle id="left_249" type="typeWE" route="left" depart="988" />
    <vehicle id="right_250" type="typeWE" route="right" depart="990" />
    <vehicle id="down_251" type="typeNS" route="down" depart="991" color="1,0,0"/>
    <vehicle id="left_252" type="typeWE" route="left" depart="999" />
    <vehicle id="right_253" type="typeWE" route="right" depart="1005" />
    <vehicle id="left_254" type="typeWE" route="left" depart="1008" />
    <vehicle id="up_255" type="typeNS" route="up" depart="1017" color="1,0,0"/>
    <vehicle id="right_256" type="typeWE" route="right" depart="1018" />
    <vehicle id="right_257" type="typeWE" route="right" depart="1019" />
    <vehicle id="left_258" type="typeWE" route="left" depart="1025" />
    <vehicle id="left_259" type="typeWE" route="left" depart="1031" />
    <vehicle id="down_260" type="typeNS" route="down" depart="1035" color="1,0,0"/>
    <vehicle id="right_261" type="typeWE" route="right" depart="1036" />
    <vehicle id="right_262" type="typeWE" route="right" depart="1038" />
    <vehicle id="right_263" type="typeWE" route="right" depart="1049" />
    <vehicle id="right_264" type="typeWE" route="right" depart="1052" />
    <vehicle id="right_265" type="typeWE" route="right" depart="1065" />
    <vehicle id="right_266" type="typeWE" route="right" depart="1071" />
    <vehicle id="up_267" type="typeNS" route="up" depart="1074" color="1,0,0"/>
    <vehicle id="right_268" type="typeWE" route="right" depart="1076" />
    <vehicle id="down_269" type="typeNS" route="down" depart="1077" color="1,0,0"/>
    <vehicle id="left_270" type="typeWE" route="left" depart="1078" />
    <vehicle id="right_271" type="typeWE" route="right" depart="1081" />
    <vehicle id="down_272" type="typeNS" route="down" depart="1087" color="1,0,0"/>
    <vehicle id="up_273" type="typeNS" route="up" depart="1088" color="1,0,0"/>
    <vehicle id="up_274" type="typeNS" route="up" depart="1089" color="1,0,0"/>
    <vehicle id="up_275" type="typeNS" route="up" depart="1090" color="1,0,0"/>
    <vehicle id="up_276" type="typeNS" route="up" depart="1097" color="1,0,0"/>
    <vehicle id="right_277" type="typeWE" route="right" depart="1098" />
    <vehicle id="left_278" type="typeWE" route="left" depart="1103" />
    <vehicle id="left_279" type="typeWE" route="left" depart="1106" />
    <vehicle id="up_280" type="typeNS" route="up" depart="1112" color="1,0,0"/>
    <vehicle id="right_281" type="typeWE" route="right" depart="1113" />
    <vehicle id="left_282" type="typeWE" route="left" depart="1114" />
    <vehicle id="right_283" type="typeWE" route="right" depart="1116" />
    <vehicle id="right_284" type="typeWE" route="right" depart="1123" />
    <vehicle id="left_285" type="typeWE" route="left" depart="1124" />
    <vehicle id="left_286" type="typeWE" route="left" depart="1125" />
    <vehicle id="left_287" type="typeWE" route="left" depart="1129" />
    <vehicle id="right_288" type="typeWE" route="right" depart="1133" />
    <vehicle id="left_289" type="typeWE" route="left" depart="1134" />
    <vehicle id="right_290" type="typeWE" route="right" depart="1137" />
    <vehicle id="right_291" type="typeWE" route="right" depart="1138" />
    <vehicle id="left_292" type="typeWE" route="left" depart="1150" />
    <vehicle id="left_293" type="typeWE" route="left" depart="1152" />
    <vehicle id="right_294" type="typeWE" route="right" depart="1154" />
    <vehicle id="right_295" type="typeWE" route="right" depart="1158" />
    <vehicle id="down_296" type="typeNS" route="down" depart="1160" color="1,0,0"/>
    <vehicle id="left_297" type="typeWE" route="left" depart="1165" />
    <vehicle id="left_298" type="typeWE" route="left" depart="1166" />
    <vehicle id="left_299" type="typeWE" route="left" depart="1169" />
    <vehicle id="left_300" type="typeWE" route="left" depart="1170" />
    <vehicle id="up_301" type="typeNS" route="up" depart="1171" color="1,0,0"/>
    <vehicle id="left_302" type="typeWE" route="left" depart="1175" />
    <vehicle id="down_303" type="typeNS" route="down" depart="1176" color="1,0,0"/>
    <vehicle id="down_304" type="typeNS" route="down" depart="1177" color="1,0,0"/>
    <vehicle id="right_305" type="typeWE" route="right" depart="1180" />
    <vehicle id="right_306" type="typeWE" route="right" depart="1182" />
    <vehicle id="down_307" type="typeNS" route="down" depart="1182" color="1,0,0"/>
    <vehicle id="right_308" type="typeWE" route="right" depart="1184" />
    <vehicle id="down_309" type="typeNS" route="down" depart="1187" color="1,0,0"/>
    <vehicle id="up_310" type="typeNS" route="up" depart="1191" color="1,0,0"/>
    <vehicle id="left_311" type="typeWE" route="left" depart="1193" />
    <vehicle id="right_312" type="typeWE" route="right" depart="1209" />
    <vehicle id="down_313" type="typeNS" route="down" depart="1209" color="1,0,0"/>
    <vehicle id="right_314" type="typeWE" route="right" depart="1211" />
    <vehicle id="left_315" type="typeWE" route="left" depart="1213" />
    <vehicle id="left_316" type="typeWE" route="left" depart="1234" />
    <vehicle id="left_317" type="typeWE" route="left" depart="1238" />
    <vehicle id="left_318" type="typeWE" route="left" depart="1252" />
    <vehicle id="down_319" type="typeNS" route="down" depart="1252" color="1,0,0"/>
    <vehicle id="right_320" type="typeWE" route="right" depart="1255" />
    <vehicle id="up_321" type="typeNS" route="up" depart="1256" color="1,0,0"/>
    <vehicle id="right_322" type="typeWE" route="right" depart="1258" />
    <vehicle id="right_323" type="typeWE" route="right" depart="1265" />
    <vehicle id="up_324" type="typeNS" route="up" depart="1267" color="1,0,0"/>
    <vehicle id="right_325" type="typeWE" route="right" depart="1271" />
    <vehicle id="down_326" type="typeNS" route="down" depart="1275" color="1,0,0"/>
    <vehicle id="right_327" type="typeWE" route="right" depart="1277" />
    <vehicle id="up_328" type="typeNS" route="up" depart="1280" color="1,0,0"/>
    <vehicle id="left_329" type="typeWE" route="left" depart="1283" />
    <vehicle id="left_330" type="typeWE" route="left" depart="1285" />
    <vehicle id="right_331" type="typeWE" route="right" depart="1294" />
    <vehicle id="right_332" type="typeWE" route="right" depart="1304" />
    <vehicle id="right_333" type="typeWE" route="right" depart="1307" />
    <vehicle id="right_334" type="typeWE" route="right" depart="1311" />
    <vehicle id="left_335" type="typeWE" route="left" depart="1311" />
    <vehicle id="right_336" type="typeWE" route="right" depart="1313" />
    <vehicle id="right_337" type="typeWE" route="right" depart="1319" />
    <vehicle id="left_338" type="typeWE" route="left" depart="1320" />
    <vehicle id="right_339" type="typeWE" route="right" depart="1329" />
    <vehicle id="right_340" type="typeWE" route="right" depart="1330" />
    <vehicle id="right_341" type="typeWE" route="right" depart="1331" />
    <vehicle id="right_342" type="typeWE" route="right" depart="1335" />
    <vehicle id="right_343" type="typeWE" route="right" depart="1337" />
    <vehicle id="up_344" type="typeNS" route="up" depart="1338" color="1,0,0"/>
    <vehicle id="right_345" type="typeWE" route="right" depart="1342" />
    <vehicle id="up_346" type="typeNS" route="up" depart="1348" color="1,0,0"/>
    <vehicle id="left_347" type="typeWE" route="left" depart="1350" />
    <vehicle id="right_348" type="typeWE" route="right" depart="1356" />
    <vehicle id="up_349" type="typeNS" route="up" depart="1357" color="1,0,0"/>
    <vehicle id="right_350" type="typeWE" route="right" depart="1358" />
    <vehicle id="right_351" type="typeWE" route="right" depart="1375" />
    <vehicle id="left_352" type="typeWE" route="left" depart="1385" />
    <vehicle id="right_353" type="typeWE" route="right" depart="1386" />
    <vehicle id="right_354" type="typeWE" route="right" depart="1399" />
    <vehicle id="right_355" type="typeWE" route="right" depart="1400" />
    <vehicle id="down_356" type="typeNS" route="down" depart="1400" color="1,0,0"/>
    <vehicle id="right_357" type="typeWE" route="right" depart="1401" />
    <vehicle id="left_358" type="typeWE" route="left" depart="1404" />
    <vehicle id="right_359" type="typeWE" route="right" depart="1406" />
    <vehicle id="right_360" type="typeWE" route="right" depart="1407" />
    <vehicle id="left_361" type="typeWE" route="left" depart="1421" />
    <vehicle id="up_362" type="typeNS" route="up" depart="1428" color="1,0,0"/>
    <vehicle id="left_363" type="typeWE" route="left" depart="1429" />
    <vehicle id="right_364" type="typeWE" route="right" depart="1430" />
    <vehicle id="right_365" type="typeWE" route="right" depart="1432" />
    <vehicle id="right_366" type="typeWE" route="right" depart="1435" />
    <vehicle id="left_367" type="typeWE" route="left" depart="1438" />
    <vehicle id="right_368" type="typeWE" route="right" depart="1440" />
    <vehicle id="left_369" type="typeWE" route="left" depart="1443" />
    <vehicle id="right_370" type="typeWE" route="right" depart="1451" />
    <vehicle id="right_371" type="typeWE" route="right" depart="1465" />
    <vehicle id="up_372" type="typeNS" route="up" depart="1469" color="1,0,0"/>
    <vehicle id="left_373" type="typeWE" route="left" depart="1477" />
    <vehicle id="left_374" type="typeWE" route="left" depart="1478" />
    <vehicle id="left_375" type="typeWE" route="left" depart="1482" />
    <vehicle id="left_376" type="typeWE" route="left" depart="1485" />
    <vehicle id="left_377" type="typeWE" route="left" depart="1487" />
    <vehicle id="right_378" type="typeWE" route="right" depart="1490" />
    <vehicle id="down_379" type="typeNS" route="down" depart="1491" color="1,0,0"/>
    <vehicle id="up_380" type="typeNS" route="up" depart="1491" color="1,0,0"/>
    <vehicle id="left_381" type="typeWE" route="left" depart="1495" />
    <vehicle id="left_382" type="typeWE" route="left" depart="1505" />
    <vehicle id="right_383" type="typeWE" route="right" depart="1510" />
    <vehicle id="right_384" type="typeWE" route="right" depart="1513" />
    <vehicle id="right_385" type="typeWE" route="right" depart="1515" />
    <vehicle id="left_386" type="typeWE" route="left" depart="1518" />
    <vehicle id="right_387" type="typeWE" route="right" depart="1523" />
    <vehicle id="down_388" type="typeNS" route="down" depart="1523" color="1,0,0"/>
    <vehicle id="right_389" type="typeWE" route="right" depart="1536" />
    <vehicle id="up_390" type="typeNS" route="up" depart="1549" color="1,0,0"/>
    <vehicle id="down_391" type="typeNS" route="down" depart="1551" color="1,0,0"/>
    <vehicle id="down_392" type="typeNS" route="down" depart="1557" color="1,0,0"/>
    <vehicle id="up_393" type="typeNS" route="up" depart="1558" color="1,0,0"/>
    <vehicle id="down_394" type="typeNS" route="down" depart="1562" color="1,0,0"/>
    <vehicle id="right_395" type="typeWE" route="right" depart="1571" />
    <vehicle id="right_396" type="typeWE" route="right" depart="1572" />
    <vehicle id="right_397" type="typeWE" route="right" depart="1576" />
    <vehicle id="right_398" type="typeWE" route="right" depart="1582" />
    <vehicle id="right_399" type="typeWE" route="right" depart="1586" />
    <vehicle id="down_400" type="typeNS" route="down" depart="1588" color="1,0,0"/>
    <vehicle id="right_401" type="typeWE" route="right" depart="1589" />